Gleevec
  -MTS-   08220717403D 0   0.00000     0.00000     0

 68 72  0  0  0  0  0  0  0  0999 V2000
   -0.6160   -2.5610   16.3220 C   0  0  0  0  0  0  0  0  0  0  0  0
   -0.1590   -1.5820   15.4280 C   0  0  0  0  0  0  0  0  0  0  0  0
    1.2230   -1.2100   15.4400 C   0  0  0  0  0  0  0  0  0  0  0  0
    2.1050   -1.8610   16.3010 C   0  0  0  0  0  0  0  0  0  0  0  0
    1.6300   -2.8440   17.1730 N   0  0  0  0  0  0  0  0  0  0  0  0
    0.3130   -3.1620   17.1480 C   0  0  0  0  0  0  0  0  0  0  0  0
    1.8200   -0.1790   14.5040 C   0  0  0  0  0  0  0  0  0  0  0  0
    1.1220    0.3210   13.4790 C   0  0  0  0  0  0  0  0  0  0  0  0
    1.8180    1.2290   12.6370 C   0  0  0  0  0  0  0  0  0  0  0  0
    3.0970    1.5400   12.9060 N   0  0  0  0  0  0  0  0  0  0  0  0
    3.7360    0.9890   13.9560 C   0  0  0  0  0  0  0  0  0  0  0  0
    3.1390    0.0890   14.7520 N   0  0  0  0  0  0  0  0  0  0  0  0
    5.0340    1.2770   14.3150 N   0  0  0  0  0  0  0  0  0  0  0  0
    5.8220    1.9920   13.4350 C   0  0  0  0  0  0  0  0  0  0  0  0
    6.4930    1.4350   12.3170 C   0  0  0  0  0  0  0  0  0  0  0  0
    7.2840    2.3220   11.5760 C   0  0  0  0  0  0  0  0  0  0  0  0
    7.4100    3.6990   11.8900 C   0  0  0  0  0  0  0  0  0  0  0  0
    6.7590    4.2540   12.9680 C   0  0  0  0  0  0  0  0  0  0  0  0
    5.9840    3.3750   13.7260 C   0  0  0  0  0  0  0  0  0  0  0  0
    6.9670    5.6770   13.1940 N   0  0  0  0  0  0  0  0  0  0  0  0
    6.7430    6.3550   14.3430 C   0  0  0  0  0  0  0  0  0  0  0  0
    7.3760    7.6740   14.6280 C   0  0  0  0  0  0  0  0  0  0  0  0
    7.2030    8.2940   15.8790 C   0  0  0  0  0  0  0  0  0  0  0  0
    7.7300    9.5750   16.1920 C   0  0  0  0  0  0  0  0  0  0  0  0
    8.4660   10.2600   15.2310 C   0  0  0  0  0  0  0  0  0  0  0  0
    8.6090    9.6870   13.9770 C   0  0  0  0  0  0  0  0  0  0  0  0
    8.0690    8.4130   13.6570 C   0  0  0  0  0  0  0  0  0  0  0  0
    9.0350   11.6190   15.5410 C   0  0  0  0  0  0  0  0  0  0  0  0
    8.7160   12.6010   14.5210 N   0  0  0  0  0  0  0  0  0  0  0  0
    7.2620   12.7250   14.3670 C   0  0  0  0  0  0  0  0  0  0  0  0
    6.9480   13.7600   13.2170 C   0  0  0  0  0  0  0  0  0  0  0  0
    7.6990   14.9980   13.4990 N   0  0  0  0  0  0  0  0  0  0  0  0
    7.4400   15.7860   12.3120 C   0  0  0  0  0  0  0  0  0  0  0  0
    9.0990   14.7400   13.6300 C   0  0  0  0  0  0  0  0  0  0  0  0
    9.3020   13.8940   14.9030 C   0  0  0  0  0  0  0  0  0  0  0  0
    5.9890    5.9420   15.1740 O   0  0  0  0  0  0  0  0  0  0  0  0
    6.4360   -0.0380   11.8740 C   0  0  0  0  0  0  0  0  0  0  0  0
    7.4496   -0.4651   11.8897 H   0  0  0  0  0  0  0  0  0  0  0  0
    5.7894   -0.6029   12.5616 H   0  0  0  0  0  0  0  0  0  0  0  0
    6.0283   -0.0986   10.8541 H   0  0  0  0  0  0  0  0  0  0  0  0
    8.7718   14.3329   15.7610 H   0  0  0  0  0  0  0  0  0  0  0  0
   10.3699   13.7905   15.1457 H   0  0  0  0  0  0  0  0  0  0  0  0
    9.4620   14.1874   12.7509 H   0  0  0  0  0  0  0  0  0  0  0  0
    9.6482   15.6889   13.7191 H   0  0  0  0  0  0  0  0  0  0  0  0
    6.3574   15.9527   12.2116 H   0  0  0  0  0  0  0  0  0  0  0  0
    7.9539   16.7549   12.3958 H   0  0  0  0  0  0  0  0  0  0  0  0
    7.8120   15.2489   11.4270 H   0  0  0  0  0  0  0  0  0  0  0  0
    7.2612   13.3463   12.2471 H   0  0  0  0  0  0  0  0  0  0  0  0
    5.8695   13.9751   13.1929 H   0  0  0  0  0  0  0  0  0  0  0  0
    6.8210   13.0785   15.3107 H   0  0  0  0  0  0  0  0  0  0  0  0
    6.8348   11.7453   14.1070 H   0  0  0  0  0  0  0  0  0  0  0  0
   10.1289   11.5339   15.6190 H   0  0  0  0  0  0  0  0  0  0  0  0
    8.6245   11.9624   16.5020 H   0  0  0  0  0  0  0  0  0  0  0  0
    8.1927    8.0097   12.6584 H   0  0  0  0  0  0  0  0  0  0  0  0
    9.1526   10.2309   13.2130 H   0  0  0  0  0  0  0  0  0  0  0  0
    7.5606   10.0139   17.1686 H   0  0  0  0  0  0  0  0  0  0  0  0
    6.6398    7.7681   16.6414 H   0  0  0  0  0  0  0  0  0  0  0  0
    7.3111    6.2083   12.4198 H   0  0  0  0  0  0  0  0  0  0  0  0
    5.4713    3.7727   14.5944 H   0  0  0  0  0  0  0  0  0  0  0  0
    8.0337    4.3292   11.2664 H   0  0  0  0  0  0  0  0  0  0  0  0
    7.8266    1.9369   10.7203 H   0  0  0  0  0  0  0  0  0  0  0  0
    5.4095    0.9652   15.2220 H   0  0  0  0  0  0  0  0  0  0  0  0
    1.3193    1.6691   11.7811 H   0  0  0  0  0  0  0  0  0  0  0  0
    0.0876    0.0499   13.3013 H   0  0  0  0  0  0  0  0  0  0  0  0
   -0.0337   -3.9386   17.8201 H   0  0  0  0  0  0  0  0  0  0  0  0
    3.1583   -1.6049   16.2941 H   0  0  0  0  0  0  0  0  0  0  0  0
   -0.8461   -1.1113   14.7342 H   0  0  0  0  0  0  0  0  0  0  0  0
   -1.6635   -2.8367   16.3632 H   0  0  0  0  0  0  0  0  0  0  0  0
  1  6  1  0  0  0  0
  1  2  2  0  0  0  0
  2  3  1  0  0  0  0
  3  4  2  0  0  0  0
  3  7  1  0  0  0  0
  4  5  1  0  0  0  0
  5  6  2  0  0  0  0
  7  8  2  0  0  0  0
  7 12  1  0  0  0  0
  8  9  1  0  0  0  0
  9 10  2  0  0  0  0
 10 11  1  0  0  0  0
 11 12  2  0  0  0  0
 11 13  1  0  0  0  0
 13 14  1  0  0  0  0
 14 19  1  0  0  0  0
 14 15  2  0  0  0  0
 15 37  1  0  0  0  0
 15 16  1  0  0  0  0
 16 17  2  0  0  0  0
 17 18  1  0  0  0  0
 18 19  2  0  0  0  0
 18 20  1  0  0  0  0
 20 21  1  0  0  0  0
 21 36  2  0  0  0  0
 21 22  1  0  0  0  0
 22 23  2  0  0  0  0
 22 27  1  0  0  0  0
 23 24  1  0  0  0  0
 24 25  2  0  0  0  0
 25 26  1  0  0  0  0
 25 28  1  0  0  0  0
 26 27  2  0  0  0  0
 28 29  1  0  0  0  0
 29 30  1  0  0  0  0
 29 35  1  0  0  0  0
 30 31  1  0  0  0  0
 31 32  1  0  0  0  0
 32 33  1  0  0  0  0
 32 34  1  0  0  0  0
 34 35  1  0  0  0  0
  1 68  1  0  0  0  0
  2 67  1  0  0  0  0
  4 66  1  0  0  0  0
  6 65  1  0  0  0  0
  8 64  1  0  0  0  0
  9 63  1  0  0  0  0
 13 62  1  0  0  0  0
 16 61  1  0  0  0  0
 17 60  1  0  0  0  0
 19 59  1  0  0  0  0
 20 58  1  0  0  0  0
 23 57  1  0  0  0  0
 24 56  1  0  0  0  0
 26 55  1  0  0  0  0
 27 54  1  0  0  0  0
 28 53  1  0  0  0  0
 28 52  1  0  0  0  0
 30 51  1  0  0  0  0
 30 50  1  0  0  0  0
 31 49  1  0  0  0  0
 31 48  1  0  0  0  0
 33 47  1  0  0  0  0
 33 46  1  0  0  0  0
 33 45  1  0  0  0  0
 34 44  1  0  0  0  0
 34 43  1  0  0  0  0
 35 42  1  0  0  0  0
 35 41  1  0  0  0  0
 37 40  1  0  0  0  0
 37 39  1  0  0  0  0
 37 38  1  0  0  0  0
M  END
$$$$
