Ethanol
  DSViewer          3D                             0

  9  8  0  0  0  0  0  0  0  0999 V2000
    5.4984    1.1544   14.2753 C   0  0  0  0  0  0  0  0  0  1
    6.1547    2.1136   13.4284 O   0  0  0  0  0  0  0  0  0  2
    4.1139    0.8179   13.6713 C   0  0  0  0  0  0  0  0  0  3
    3.5884    0.0835   14.3021 H   0  0  0  0  0  0  0  0  0  4
    3.5014    1.7305   13.6025 H   0  0  0  0  0  0  0  0  0  5
    4.2361    0.3964   12.6614 H   0  0  0  0  0  0  0  0  0  6
    7.0151    2.3598   13.7535 H   0  0  0  0  0  0  0  0  0  7
    6.1018    0.2331   14.3459 H   0  0  0  0  0  0  0  0  0  8
    5.3643    1.5706   15.2884 H   0  0  0  0  0  0  0  0  0  9
  1  9  1  0  0  0
  1  2  1  0  0  0
  1  8  1  0  0  0
  2  7  1  0  0  0
  6  3  1  0  0  0
  5  3  1  0  0  0
  4  3  1  0  0  0
  1  3  1  0  0  0
M  END
$$$$
kaalscaffold
  DSViewer          3D                             0

 22 23  0  0  0  0  0  0  0  0999 V2000
    1.8200   -0.1790   14.5040 C   0  0  0  0  0  0  0  0  0  1
    1.1220    0.3210   13.4790 C   0  0  0  0  0  0  0  0  0  2
    1.8180    1.2290   12.6370 C   0  0  0  0  0  0  0  0  0  3
    3.0970    1.5400   12.9060 N   0  0  0  0  0  0  0  0  0  4
    3.7360    0.9890   13.9560 C   0  0  0  0  0  0  0  0  0  5
    3.1390    0.0890   14.7520 N   0  0  0  0  0  0  0  0  0  6
    5.0340    1.2770   14.3150 N   0  0  0  0  0  0  0  0  0  7
    5.8220    1.9920   13.4350 C   0  0  0  0  0  0  0  0  0  8
    6.4930    1.4350   12.3170 C   0  0  0  0  0  0  0  0  0  9
    7.2840    2.3220   11.5760 C   0  0  0  0  0  0  0  0  0 10
    7.4100    3.6990   11.8900 C   0  0  0  0  0  0  0  0  0 11
    6.7590    4.2540   12.9680 C   0  0  0  0  0  0  0  0  0 12
    5.9840    3.3750   13.7260 C   0  0  0  0  0  0  0  0  0 13
    6.3981    0.3790   12.0650 H   0  0  0  0  0  0  0  0  0 14
    1.3160   -0.8508   15.1912 H   0  0  0  0  0  0  0  0  0 15
    0.0876    0.0499   13.3013 H   0  0  0  0  0  0  0  0  0 16
    1.3193    1.6691   11.7811 H   0  0  0  0  0  0  0  0  0 17
    5.4095    0.9652   15.2220 H   0  0  0  0  0  0  0  0  0 18
    7.8266    1.9369   10.7203 H   0  0  0  0  0  0  0  0  0 19
    8.0337    4.3292   11.2664 H   0  0  0  0  0  0  0  0  0 20
    5.4713    3.7727   14.5944 H   0  0  0  0  0  0  0  0  0 21
    6.8666    5.5156   13.2666 H   0  0  0  0  0  0  0  0  0 22
 15  1  1  0  0  0
  1  2  2  0  0  0
  1  6  1  0  0  0
  2  3  1  0  0  0
  3  4  2  0  0  0
  4  5  1  0  0  0
  5  6  2  0  0  0
  5  7  1  0  0  0
  7  8  1  0  0  0
  8 13  1  0  0  0
  8  9  2  0  0  0
  9 10  1  0  0  0
 10 11  2  0  0  0
 11 12  1  0  0  0
 12 13  2  0  0  0
 12 22  1  0  0  0
  2 16  1  0  0  0
  3 17  1  0  0  0
  7 18  1  0  0  0
 10 19  1  0  0  0
 11 20  1  0  0  0
 13 21  1  0  0  0
  9 14  1  0  0  0
M  END
$$$$
kerstboom
  DSViewer          3D                             0

 92 97  0  0  0  0  0  0  0  0999 V2000
   -0.5228   -2.2873   16.0702 C   0  0  2  0  0  0  0  0  0  1
   -0.4404   -0.9227   16.5063 C   0  0  0  0  0  0  0  0  0  2
    1.1694   -0.5668   16.5069 C   0  0  1  0  0  0  0  0  0  3
    2.1259   -1.7973   16.9832 C   0  0  0  0  0  0  0  0  0  4
    1.4145   -2.3466   18.0505 C   0  0  0  0  0  0  0  0  0  5
    0.1532   -3.0628   17.3467 C   0  0  0  0  0  0  0  0  0  6
    1.8372   -0.0942   15.1921 C   0  0  0  0  0  0  0  0  0  7
    1.1759    0.0731   13.9787 C   0  0  0  0  0  0  0  0  0  8
    1.8835    0.5577   12.8777 C   0  0  0  0  0  0  0  0  0  9
    3.1779    0.8682   12.9786 N   0  0  0  0  0  0  0  0  0 10
    3.8398    0.7153   14.1221 C   0  0  0  0  0  0  0  0  0 11
    3.1839    0.2355   15.2438 C   0  0  0  0  0  0  0  0  0 12
    5.2128    1.0725   14.2892 N   0  0  0  0  0  0  0  0  0 13
    5.8714    1.9435   13.4071 C   0  0  0  0  0  0  0  0  0 14
    6.1585    1.6297   12.0773 C   0  0  0  0  0  0  0  0  0 15
    6.8201    2.5600   11.2925 C   0  0  0  0  0  0  0  0  0 16
    7.1769    3.7895   11.8255 C   0  0  0  0  0  0  0  0  0 17
    6.8925    4.1265   13.1463 C   0  0  0  0  0  0  0  0  0 18
    6.2426    3.1730   13.9490 C   0  0  0  0  0  0  0  0  0 19
    7.3374    5.4805   13.5021 N   0  0  0  0  0  0  0  0  0 20
    6.8663    6.3559   14.5646 C   0  0  0  0  0  0  0  0  0 21
    7.3803    7.7215   14.6938 C   0  0  0  0  0  0  0  0  0 22
    6.8744    8.5090   15.7179 C   0  0  0  0  0  0  0  0  0 23
    7.3189    9.8140   15.8835 C   0  0  0  0  0  0  0  0  0 24
    8.2744   10.3488   15.0267 C   0  0  0  0  0  0  0  0  0 25
    8.7877    9.5509   14.0035 C   0  0  0  0  0  0  0  0  0 26
    8.3395    8.2418   13.8335 C   0  0  0  0  0  0  0  0  0 27
    8.7330   11.7972   15.2914 C   0  0  0  0  0  0  0  0  0 28
    5.9918    6.0484   15.3670 O   0  0  0  0  0  0  0  0  0 29
    5.8121    0.3003   11.4606 C   0  0  0  0  0  0  0  0  0 30
   -0.9634   -0.1629   15.9031 H   0  0  0  0  0  0  0  0  0 31
    2.2202   -2.5888   16.2237 H   0  0  0  0  0  0  0  0  0 32
   -0.5684   -3.1311   18.1739 H   0  0  0  0  0  0  0  0  0 33
    0.1468   -0.1515   13.8878 H   0  0  0  0  0  0  0  0  0 34
    1.3788    0.6948   11.9443 H   0  0  0  0  0  0  0  0  0 35
    5.5914    0.9619   15.2108 H   0  0  0  0  0  0  0  0  0 36
    7.0560    2.3313   10.2747 H   0  0  0  0  0  0  0  0  0 37
    7.6745    4.4906   11.2078 H   0  0  0  0  0  0  0  0  0 38
    7.9994    5.8666   12.8940 H   0  0  0  0  0  0  0  0  0 39
    6.1433    8.1075   16.3781 H   0  0  0  0  0  0  0  0  0 40
    6.9281   10.4035   16.6708 H   0  0  0  0  0  0  0  0  0 41
    9.5186    9.9390   13.3502 H   0  0  0  0  0  0  0  0  0 42
    8.7296    7.6438   13.0502 H   0  0  0  0  0  0  0  0  0 43
    8.0801   12.2611   16.0487 H   0  0  0  0  0  0  0  0  0 44
    9.7222   11.7528   15.7682 H   0  0  0  0  0  0  0  0  0 45
    5.5287   -0.4272   12.2335 H   0  0  0  0  0  0  0  0  0 46
    6.6631   -0.0554   10.8571 H   0  0  0  0  0  0  0  0  0 47
    3.7188    0.1419   16.1559 H   0  0  0  0  0  0  0  0  0 48
    1.9679   -3.0950   18.6361 H   0  0  0  0  0  0  0  0  0 49
    4.9715    0.4495   10.7689 H   0  0  0  0  0  0  0  0  0 50
    0.3937   -4.0717   16.9959 H   0  0  0  0  0  0  0  0  0 51
    0.0726   -2.3595   15.1484 H   0  0  0  0  0  0  0  0  0 52
    3.1195   -1.4090   17.2429 H   0  0  0  0  0  0  0  0  0 53
    1.1277   -1.4997   18.6964 H   0  0  0  0  0  0  0  0  0 54
   -0.8769   -0.9579   17.5178 H   0  0  0  0  0  0  0  0  0 55
    1.2707    0.2643   17.2184 H   0  0  0  0  0  0  0  0  0 56
   -2.0214   -2.8035   15.8049 C   0  0  0  0  0  0  0  0  0 57
   -2.4301   -2.1567   15.0177 H   0  0  0  0  0  0  0  0  0 58
   -2.5996   -2.6479   16.7281 H   0  0  0  0  0  0  0  0  0 59
   -2.2873   -4.3107   15.3157 C   0  0  0  0  0  0  0  0  0 60
   -1.7528   -4.4702   14.3706 H   0  0  0  0  0  0  0  0  0 61
   -3.3696   -4.4015   15.1335 H   0  0  0  0  0  0  0  0  0 62
   -1.9110   -5.4562   16.3111 C   0  0  0  0  0  0  0  0  0 63
   -0.8366   -5.4398   16.5149 H   0  0  0  0  0  0  0  0  0 64
   -2.4660   -5.3202   17.2529 H   0  0  0  0  0  0  0  0  0 65
   -2.2581   -6.7222   15.7456 O   0  0  0  0  0  0  0  0  0 66
   -1.7616   -6.8632   14.9020 H   0  0  0  0  0  0  0  0  0 67
    8.9045   12.7824   14.1064 C   0  0  0  0  0  0  0  0  0 68
    9.4145   14.0405   14.4063 C   0  0  0  0  0  0  0  0  0 69
    9.6643   14.2824   15.4079 H   0  0  0  0  0  0  0  0  0 70
    9.5957   14.9910   13.4013 C   0  0  0  0  0  0  0  0  0 71
    9.2698   14.6803   12.0913 C   0  0  0  0  0  0  0  0  0 72
    8.7584   13.4287   11.7801 C   0  0  0  0  0  0  0  0  0 73
    8.5061   13.1892   10.7740 H   0  0  0  0  0  0  0  0  0 74
    8.5723   12.4823   12.7868 C   0  0  0  0  0  0  0  0  0 75
    8.1807   11.5453   12.5341 H   0  0  0  0  0  0  0  0  0 76
   10.1233   16.3191   13.7196 C   0  0  0  0  0  0  0  0  0 77
    9.2419   17.3617   13.9956 C   0  0  0  0  0  0  0  0  0 78
    8.1953   17.1894   13.9833 H   0  0  0  0  0  0  0  0  0 79
    9.7317   18.6280   14.2879 C   0  0  0  0  0  0  0  0  0 80
    9.0580   19.4234   14.4988 H   0  0  0  0  0  0  0  0  0 81
   11.1019   18.8577   14.3008 C   0  0  0  0  0  0  0  0  0 82
   11.4757   19.8250   14.5213 H   0  0  0  0  0  0  0  0  0 83
   11.9837   17.8179   14.0234 C   0  0  0  0  0  0  0  0  0 84
   13.0309   17.9958   14.0312 H   0  0  0  0  0  0  0  0  0 85
   11.4943   16.5498   13.7328 C   0  0  0  0  0  0  0  0  0 86
   12.1698   15.7598   13.5187 H   0  0  0  0  0  0  0  0  0 87
    9.5022   15.8596   10.8486 Cl  0  0  0  0  0  0  0  0  0 88
    5.9045    3.3729   15.4172 C   0  0  0  0  0  0  0  0  0 89
    5.7398    2.4176   15.9266 H   0  0  0  0  0  0  0  0  0 90
    4.9807    3.9661   15.4741 H   0  0  0  0  0  0  0  0  0 91
    6.6937    3.9560   15.9021 H   0  0  0  0  0  0  0  0  0 92
  1  6  1  0  0  0
  1  2  1  0  0  0
  2  3  1  0  0  0
  3  4  1  0  0  0
  3  7  1  0  0  0
  4  5  1  0  0  0
  5  6  1  0  0  0
  7  8  2  0  0  0
  7 12  1  0  0  0
  8  9  1  0  0  0
  9 10  2  0  0  0
 10 11  1  0  0  0
 11 12  2  0  0  0
 11 13  1  0  0  0
 13 14  1  0  0  0
 14 19  1  0  0  0
 14 15  2  0  0  0
 15 30  1  0  0  0
 15 16  1  0  0  0
 16 17  2  0  0  0
 17 18  1  0  0  0
 18 19  2  0  0  0
 18 20  1  0  0  0
 20 21  1  0  0  0
 21 29  2  0  0  0
 21 22  1  0  0  0
 22 23  2  0  0  0
 22 27  1  0  0  0
 23 24  1  0  0  0
 24 25  2  0  0  0
 25 26  1  0  0  0
 25 28  1  0  0  0
 26 27  2  0  0  0
  2 31  1  0  0  0
  4 32  1  0  0  0
  6 33  1  0  0  0
  8 34  1  0  0  0
  9 35  1  0  0  0
 13 36  1  0  0  0
 16 37  1  0  0  0
 17 38  1  0  0  0
 20 39  1  0  0  0
 23 40  1  0  0  0
 24 41  1  0  0  0
 26 42  1  0  0  0
 27 43  1  0  0  0
 28 44  1  0  0  0
 28 45  1  0  0  0
 30 46  1  0  0  0
 30 47  1  0  0  0
 12 48  1  0  0  0
  5 49  1  0  0  0
 30 50  1  0  0  0
  6 51  1  0  0  0
  1 52  1  0  0  0
  4 53  1  0  0  0
  5 54  1  0  0  0
  2 55  1  0  0  0
  3 56  1  0  0  0
 58 57  1  0  0  0
 59 57  1  0  0  0
 61 60  1  0  0  0
 62 60  1  0  0  0
 57 60  1  0  0  0
 64 63  1  0  0  0
 65 63  1  0  0  0
 60 63  1  0  0  0
 67 66  1  0  0  0
 63 66  1  0  0  0
 68 69  1  0  0  0
 70 69  1  0  0  0
 69 71  2  0  0  0
 71 72  1  0  0  0
 72 73  2  0  0  0
 74 73  1  0  0  0
 73 75  1  0  0  0
 76 75  1  0  0  0
 75 68  2  0  0  0
 77 78  1  0  0  0
 79 78  1  0  0  0
 78 80  2  0  0  0
 81 80  1  0  0  0
 80 82  1  0  0  0
 83 82  1  0  0  0
 82 84  2  0  0  0
 85 84  1  0  0  0
 84 86  1  0  0  0
 87 86  1  0  0  0
 86 77  2  0  0  0
 71 77  1  0  0  0
 72 88  1  0  0  0
 90 89  1  0  0  0
 91 89  1  0  0  0
 92 89  1  0  0  0
  1 57  1  0  0  0
 28 68  1  0  0  0
 19 89  1  0  0  0
M  END
$$$$
