R1-CH2CH2phenyl
  -MTS-   09180715293D 0   0.00000     0.00000     0

 38 40  0  0  0  0  0  0  0  0999 V2000
    1.8200   -0.1790   14.5040 C   0  0  0  0  0  0  0  0  0  0  0  0
    1.1220    0.3210   13.4790 C   0  0  0  0  0  0  0  0  0  0  0  0
    1.8180    1.2290   12.6370 C   0  0  0  0  0  0  0  0  0  0  0  0
    3.0970    1.5400   12.9060 N   0  0  0  0  0  0  0  0  0  0  0  0
    3.7360    0.9890   13.9560 C   0  0  0  0  0  0  0  0  0  0  0  0
    3.1390    0.0890   14.7520 N   0  0  0  0  0  0  0  0  0  0  0  0
    5.0340    1.2770   14.3150 N   0  0  0  0  0  0  0  0  0  0  0  0
    5.8220    1.9920   13.4350 C   0  0  0  0  0  0  0  0  0  0  0  0
    6.4930    1.4350   12.3170 C   0  0  0  0  0  0  0  0  0  0  0  0
    7.2840    2.3220   11.5760 C   0  0  0  0  0  0  0  0  0  0  0  0
    7.4100    3.6990   11.8900 C   0  0  0  0  0  0  0  0  0  0  0  0
    6.7590    4.2540   12.9680 C   0  0  0  0  0  0  0  0  0  0  0  0
    5.9840    3.3750   13.7260 C   0  0  0  0  0  0  0  0  0  0  0  0
    6.9591    5.7618   13.2487 C   0  0  0  0  0  0  0  0  0  0  0  0
    6.5188    6.3082   14.6388 C   0  0  0  0  0  0  0  0  0  0  0  0
    7.1117    7.7041   14.9484 C   0  0  0  0  0  0  0  0  0  0  0  0
    6.9651    8.2942   16.2131 C   0  0  0  0  0  0  0  0  0  0  0  0
    7.5066    9.5552   16.4959 C   0  0  0  0  0  0  0  0  0  0  0  0
    8.2372   10.2281   15.5133 C   0  0  0  0  0  0  0  0  0  0  0  0
    8.3841    9.6574   14.2461 C   0  0  0  0  0  0  0  0  0  0  0  0
    7.8030    8.4175   13.9607 C   0  0  0  0  0  0  0  0  0  0  0  0
    6.3992    0.3831   12.0511 H   0  0  0  0  0  0  0  0  0  0  0  0
    1.3165   -0.8511   15.1911 H   0  0  0  0  0  0  0  0  0  0  0  0
    8.6875   11.1911   15.7333 H   0  0  0  0  0  0  0  0  0  0  0  0
    6.8340    5.5937   15.4156 H   0  0  0  0  0  0  0  0  0  0  0  0
    0.0876    0.0499   13.3013 H   0  0  0  0  0  0  0  0  0  0  0  0
    1.3193    1.6691   11.7811 H   0  0  0  0  0  0  0  0  0  0  0  0
    5.4095    0.9652   15.2220 H   0  0  0  0  0  0  0  0  0  0  0  0
    7.8266    1.9369   10.7203 H   0  0  0  0  0  0  0  0  0  0  0  0
    8.0337    4.3292   11.2664 H   0  0  0  0  0  0  0  0  0  0  0  0
    5.4713    3.7727   14.5944 H   0  0  0  0  0  0  0  0  0  0  0  0
    6.4233    6.2925   12.4478 H   0  0  0  0  0  0  0  0  0  0  0  0
    6.4212    7.7743   16.9949 H   0  0  0  0  0  0  0  0  0  0  0  0
    7.3634   10.0054   17.4736 H   0  0  0  0  0  0  0  0  0  0  0  0
    8.9488   10.1809   13.4804 H   0  0  0  0  0  0  0  0  0  0  0  0
    7.8915    8.0186   12.9566 H   0  0  0  0  0  0  0  0  0  0  0  0
    8.0346    5.9771   13.1420 H   0  0  0  0  0  0  0  0  0  0  0  0
    5.4215    6.3932   14.6720 H   0  0  0  0  0  0  0  0  0  0  0  0
 23  1  1  0  0  0  0
  1  2  2  0  0  0  0
  1  6  1  0  0  0  0
  2  3  1  0  0  0  0
  3  4  2  0  0  0  0
  4  5  1  0  0  0  0
  5  6  2  0  0  0  0
  5  7  1  0  0  0  0
  7  8  1  0  0  0  0
  8 13  1  0  0  0  0
  8  9  2  0  0  0  0
  9 10  1  0  0  0  0
 10 11  2  0  0  0  0
 11 12  1  0  0  0  0
 12 13  2  0  0  0  0
 12 14  1  0  0  0  0
 14 15  1  0  0  0  0
 15 25  1  0  0  0  0
 15 16  1  0  0  0  0
 16 17  2  0  0  0  0
 16 21  1  0  0  0  0
 17 18  1  0  0  0  0
 18 19  2  0  0  0  0
 19 20  1  0  0  0  0
 19 24  1  0  0  0  0
 20 21  2  0  0  0  0
  2 26  1  0  0  0  0
  3 27  1  0  0  0  0
  7 28  1  0  0  0  0
 10 29  1  0  0  0  0
 11 30  1  0  0  0  0
 13 31  1  0  0  0  0
 14 32  1  0  0  0  0
 17 33  1  0  0  0  0
 18 34  1  0  0  0  0
 20 35  1  0  0  0  0
 21 36  1  0  0  0  0
 14 37  1  0  0  0  0
 15 38  1  0  0  0  0
  9 22  1  0  0  0  0
M  END
$$$$
R1-CONHphenyl
  -MTS-   09180711063D 0   0.00000     0.00000     0

 36 38  0  0  0  0  0  0  0  0999 V2000
    1.8200   -0.1790   14.5040 C   0  0  0  0  0  0  0  0  0  0  0  0
    1.1220    0.3210   13.4790 C   0  0  0  0  0  0  0  0  0  0  0  0
    1.8180    1.2290   12.6370 C   0  0  0  0  0  0  0  0  0  0  0  0
    3.0970    1.5400   12.9060 N   0  0  0  0  0  0  0  0  0  0  0  0
    3.7360    0.9890   13.9560 C   0  0  0  0  0  0  0  0  0  0  0  0
    3.1390    0.0890   14.7520 N   0  0  0  0  0  0  0  0  0  0  0  0
    5.0340    1.2770   14.3150 N   0  0  0  0  0  0  0  0  0  0  0  0
    5.8220    1.9920   13.4350 C   0  0  0  0  0  0  0  0  0  0  0  0
    6.4930    1.4350   12.3170 C   0  0  0  0  0  0  0  0  0  0  0  0
    7.2840    2.3220   11.5760 C   0  0  0  0  0  0  0  0  0  0  0  0
    7.4100    3.6990   11.8900 C   0  0  0  0  0  0  0  0  0  0  0  0
    6.7590    4.2540   12.9680 C   0  0  0  0  0  0  0  0  0  0  0  0
    5.9840    3.3750   13.7260 C   0  0  0  0  0  0  0  0  0  0  0  0
    6.8279    5.7537   13.1844 C   0  0  0  0  0  0  0  0  0  0  0  0
    6.9799    6.3138   14.4141 N   0  0  0  0  0  0  0  0  0  0  0  0
    7.3760    7.6740   14.6280 C   0  0  0  0  0  0  0  0  0  0  0  0
    7.2030    8.2940   15.8790 C   0  0  0  0  0  0  0  0  0  0  0  0
    7.7300    9.5750   16.1920 C   0  0  0  0  0  0  0  0  0  0  0  0
    8.4660   10.2600   15.2310 C   0  0  0  0  0  0  0  0  0  0  0  0
    8.6090    9.6870   13.9770 C   0  0  0  0  0  0  0  0  0  0  0  0
    8.0690    8.4130   13.6570 C   0  0  0  0  0  0  0  0  0  0  0  0
    6.7274    6.3994   12.1542 O   0  0  0  0  0  0  0  0  0  0  0  0
    6.3992    0.3831   12.0511 H   0  0  0  0  0  0  0  0  0  0  0  0
    1.3165   -0.8511   15.1911 H   0  0  0  0  0  0  0  0  0  0  0  0
    8.9117   11.2237   15.4572 H   0  0  0  0  0  0  0  0  0  0  0  0
    6.9175    5.7113   15.2107 H   0  0  0  0  0  0  0  0  0  0  0  0
    0.0876    0.0499   13.3013 H   0  0  0  0  0  0  0  0  0  0  0  0
    1.3193    1.6691   11.7811 H   0  0  0  0  0  0  0  0  0  0  0  0
    5.4095    0.9652   15.2220 H   0  0  0  0  0  0  0  0  0  0  0  0
    7.8266    1.9369   10.7203 H   0  0  0  0  0  0  0  0  0  0  0  0
    8.0337    4.3292   11.2664 H   0  0  0  0  0  0  0  0  0  0  0  0
    5.4713    3.7727   14.5944 H   0  0  0  0  0  0  0  0  0  0  0  0
    6.6398    7.7681   16.6414 H   0  0  0  0  0  0  0  0  0  0  0  0
    7.5606   10.0139   17.1686 H   0  0  0  0  0  0  0  0  0  0  0  0
    9.1526   10.2309   13.2130 H   0  0  0  0  0  0  0  0  0  0  0  0
    8.1927    8.0097   12.6584 H   0  0  0  0  0  0  0  0  0  0  0  0
 24  1  1  0  0  0  0
  1  2  2  0  0  0  0
  1  6  1  0  0  0  0
  2  3  1  0  0  0  0
  3  4  2  0  0  0  0
  4  5  1  0  0  0  0
  5  6  2  0  0  0  0
  5  7  1  0  0  0  0
  7  8  1  0  0  0  0
  8 13  1  0  0  0  0
  8  9  2  0  0  0  0
  9 10  1  0  0  0  0
 10 11  2  0  0  0  0
 11 12  1  0  0  0  0
 12 13  2  0  0  0  0
 12 14  1  0  0  0  0
 14 15  1  0  0  0  0
 15 26  1  0  0  0  0
 15 16  1  0  0  0  0
 16 17  2  0  0  0  0
 16 21  1  0  0  0  0
 17 18  1  0  0  0  0
 18 19  2  0  0  0  0
 19 20  1  0  0  0  0
 19 25  1  0  0  0  0
 20 21  2  0  0  0  0
  2 27  1  0  0  0  0
  3 28  1  0  0  0  0
  7 29  1  0  0  0  0
 10 30  1  0  0  0  0
 11 31  1  0  0  0  0
 13 32  1  0  0  0  0
 14 22  2  0  0  0  0
 17 33  1  0  0  0  0
 18 34  1  0  0  0  0
 20 35  1  0  0  0  0
 21 36  1  0  0  0  0
  9 23  1  0  0  0  0
M  END
$$$$
R1-NHCOphenyl
  -MTS-   09180711073D 0   0.00000     0.00000     0

 36 38  0  0  0  0  0  0  0  0999 V2000
    1.8200   -0.1790   14.5040 C   0  0  0  0  0  0  0  0  0  0  0  0
    1.1220    0.3210   13.4790 C   0  0  0  0  0  0  0  0  0  0  0  0
    1.8180    1.2290   12.6370 C   0  0  0  0  0  0  0  0  0  0  0  0
    3.0970    1.5400   12.9060 N   0  0  0  0  0  0  0  0  0  0  0  0
    3.7360    0.9890   13.9560 C   0  0  0  0  0  0  0  0  0  0  0  0
    3.1390    0.0890   14.7520 N   0  0  0  0  0  0  0  0  0  0  0  0
    5.0340    1.2770   14.3150 N   0  0  0  0  0  0  0  0  0  0  0  0
    5.8220    1.9920   13.4350 C   0  0  0  0  0  0  0  0  0  0  0  0
    6.4930    1.4350   12.3170 C   0  0  0  0  0  0  0  0  0  0  0  0
    7.2840    2.3220   11.5760 C   0  0  0  0  0  0  0  0  0  0  0  0
    7.4100    3.6990   11.8900 C   0  0  0  0  0  0  0  0  0  0  0  0
    6.7590    4.2540   12.9680 C   0  0  0  0  0  0  0  0  0  0  0  0
    5.9840    3.3750   13.7260 C   0  0  0  0  0  0  0  0  0  0  0  0
    6.9670    5.6770   13.1940 N   0  0  0  0  0  0  0  0  0  0  0  0
    6.7430    6.3550   14.3430 C   0  0  0  0  0  0  0  0  0  0  0  0
    7.3760    7.6740   14.6280 C   0  0  0  0  0  0  0  0  0  0  0  0
    7.2030    8.2940   15.8790 C   0  0  0  0  0  0  0  0  0  0  0  0
    7.7300    9.5750   16.1920 C   0  0  0  0  0  0  0  0  0  0  0  0
    8.4660   10.2600   15.2310 C   0  0  0  0  0  0  0  0  0  0  0  0
    8.6090    9.6870   13.9770 C   0  0  0  0  0  0  0  0  0  0  0  0
    8.0690    8.4130   13.6570 C   0  0  0  0  0  0  0  0  0  0  0  0
    5.9890    5.9420   15.1740 O   0  0  0  0  0  0  0  0  0  0  0  0
    6.3992    0.3831   12.0511 H   0  0  0  0  0  0  0  0  0  0  0  0
    1.3165   -0.8511   15.1911 H   0  0  0  0  0  0  0  0  0  0  0  0
    8.9117   11.2237   15.4572 H   0  0  0  0  0  0  0  0  0  0  0  0
    0.0876    0.0499   13.3013 H   0  0  0  0  0  0  0  0  0  0  0  0
    1.3193    1.6691   11.7811 H   0  0  0  0  0  0  0  0  0  0  0  0
    5.4095    0.9652   15.2220 H   0  0  0  0  0  0  0  0  0  0  0  0
    7.8266    1.9369   10.7203 H   0  0  0  0  0  0  0  0  0  0  0  0
    8.0337    4.3292   11.2664 H   0  0  0  0  0  0  0  0  0  0  0  0
    5.4713    3.7727   14.5944 H   0  0  0  0  0  0  0  0  0  0  0  0
    7.3111    6.2083   12.4198 H   0  0  0  0  0  0  0  0  0  0  0  0
    6.6398    7.7681   16.6414 H   0  0  0  0  0  0  0  0  0  0  0  0
    7.5606   10.0139   17.1686 H   0  0  0  0  0  0  0  0  0  0  0  0
    9.1526   10.2309   13.2130 H   0  0  0  0  0  0  0  0  0  0  0  0
    8.1927    8.0097   12.6584 H   0  0  0  0  0  0  0  0  0  0  0  0
 24  1  1  0  0  0  0
  1  2  2  0  0  0  0
  1  6  1  0  0  0  0
  2  3  1  0  0  0  0
  3  4  2  0  0  0  0
  4  5  1  0  0  0  0
  5  6  2  0  0  0  0
  5  7  1  0  0  0  0
  7  8  1  0  0  0  0
  8 13  1  0  0  0  0
  8  9  2  0  0  0  0
  9 10  1  0  0  0  0
 10 11  2  0  0  0  0
 11 12  1  0  0  0  0
 12 13  2  0  0  0  0
 12 14  1  0  0  0  0
 14 15  1  0  0  0  0
 15 22  2  0  0  0  0
 15 16  1  0  0  0  0
 16 17  2  0  0  0  0
 16 21  1  0  0  0  0
 17 18  1  0  0  0  0
 18 19  2  0  0  0  0
 19 20  1  0  0  0  0
 19 25  1  0  0  0  0
 20 21  2  0  0  0  0
  2 26  1  0  0  0  0
  3 27  1  0  0  0  0
  7 28  1  0  0  0  0
 10 29  1  0  0  0  0
 11 30  1  0  0  0  0
 13 31  1  0  0  0  0
 14 32  1  0  0  0  0
 17 33  1  0  0  0  0
 18 34  1  0  0  0  0
 20 35  1  0  0  0  0
 21 36  1  0  0  0  0
  9 23  1  0  0  0  0
M  END
$$$$