R2-pyridine
  -MTS-   09180710583D 0   0.00000     0.00000     0

 45 48  0  0  0  0  0  0  0  0999 V2000
   -0.6160   -2.5610   16.3220 C   0  0  0  0  0  0  0  0  0  0  0  0
   -0.1590   -1.5820   15.4280 C   0  0  0  0  0  0  0  0  0  0  0  0
    1.2230   -1.2100   15.4400 C   0  0  0  0  0  0  0  0  0  0  0  0
    2.1050   -1.8610   16.3010 C   0  0  0  0  0  0  0  0  0  0  0  0
    1.6300   -2.8440   17.1730 N   0  0  0  0  0  0  0  0  0  0  0  0
    0.3130   -3.1620   17.1480 C   0  0  0  0  0  0  0  0  0  0  0  0
    1.8200   -0.1790   14.5040 C   0  0  0  0  0  0  0  0  0  0  0  0
    1.1220    0.3210   13.4790 C   0  0  0  0  0  0  0  0  0  0  0  0
    1.8180    1.2290   12.6370 C   0  0  0  0  0  0  0  0  0  0  0  0
    3.0970    1.5400   12.9060 N   0  0  0  0  0  0  0  0  0  0  0  0
    3.7360    0.9890   13.9560 C   0  0  0  0  0  0  0  0  0  0  0  0
    3.1390    0.0890   14.7520 N   0  0  0  0  0  0  0  0  0  0  0  0
    5.0340    1.2770   14.3150 N   0  0  0  0  0  0  0  0  0  0  0  0
    5.8220    1.9920   13.4350 C   0  0  0  0  0  0  0  0  0  0  0  0
    6.4930    1.4350   12.3170 C   0  0  0  0  0  0  0  0  0  0  0  0
    7.2840    2.3220   11.5760 C   0  0  0  0  0  0  0  0  0  0  0  0
    7.4100    3.6990   11.8900 C   0  0  0  0  0  0  0  0  0  0  0  0
    6.7590    4.2540   12.9680 C   0  0  0  0  0  0  0  0  0  0  0  0
    5.9840    3.3750   13.7260 C   0  0  0  0  0  0  0  0  0  0  0  0
    6.9670    5.6770   13.1940 N   0  0  0  0  0  0  0  0  0  0  0  0
    6.7430    6.3550   14.3430 C   0  0  0  0  0  0  0  0  0  0  0  0
    7.3760    7.6740   14.6280 C   0  0  0  0  0  0  0  0  0  0  0  0
    7.2030    8.2940   15.8790 C   0  0  0  0  0  0  0  0  0  0  0  0
    7.7300    9.5750   16.1920 C   0  0  0  0  0  0  0  0  0  0  0  0
    8.4660   10.2600   15.2310 C   0  0  0  0  0  0  0  0  0  0  0  0
    8.6090    9.6870   13.9770 C   0  0  0  0  0  0  0  0  0  0  0  0
    8.0690    8.4130   13.6570 C   0  0  0  0  0  0  0  0  0  0  0  0
    5.9890    5.9420   15.1740 O   0  0  0  0  0  0  0  0  0  0  0  0
    6.3982    0.3791   12.0641 H   0  0  0  0  0  0  0  0  0  0  0  0
    8.9117   11.2237   15.4572 H   0  0  0  0  0  0  0  0  0  0  0  0
   -1.6635   -2.8367   16.3632 H   0  0  0  0  0  0  0  0  0  0  0  0
   -0.8461   -1.1113   14.7342 H   0  0  0  0  0  0  0  0  0  0  0  0
    3.1583   -1.6049   16.2941 H   0  0  0  0  0  0  0  0  0  0  0  0
   -0.0337   -3.9386   17.8201 H   0  0  0  0  0  0  0  0  0  0  0  0
    0.0876    0.0499   13.3013 H   0  0  0  0  0  0  0  0  0  0  0  0
    1.3193    1.6691   11.7811 H   0  0  0  0  0  0  0  0  0  0  0  0
    5.4095    0.9652   15.2220 H   0  0  0  0  0  0  0  0  0  0  0  0
    7.8266    1.9369   10.7203 H   0  0  0  0  0  0  0  0  0  0  0  0
    8.0337    4.3292   11.2664 H   0  0  0  0  0  0  0  0  0  0  0  0
    5.4713    3.7727   14.5944 H   0  0  0  0  0  0  0  0  0  0  0  0
    7.3111    6.2083   12.4198 H   0  0  0  0  0  0  0  0  0  0  0  0
    6.6398    7.7681   16.6414 H   0  0  0  0  0  0  0  0  0  0  0  0
    7.5606   10.0139   17.1686 H   0  0  0  0  0  0  0  0  0  0  0  0
    9.1526   10.2309   13.2130 H   0  0  0  0  0  0  0  0  0  0  0  0
    8.1927    8.0097   12.6584 H   0  0  0  0  0  0  0  0  0  0  0  0
  1  6  1  0  0  0  0
  1  2  2  0  0  0  0
  2  3  1  0  0  0  0
  3  4  2  0  0  0  0
  3  7  1  0  0  0  0
  4  5  1  0  0  0  0
  5  6  2  0  0  0  0
  7  8  2  0  0  0  0
  7 12  1  0  0  0  0
  8  9  1  0  0  0  0
  9 10  2  0  0  0  0
 10 11  1  0  0  0  0
 11 12  2  0  0  0  0
 11 13  1  0  0  0  0
 13 14  1  0  0  0  0
 14 19  1  0  0  0  0
 14 15  2  0  0  0  0
 15 16  1  0  0  0  0
 16 17  2  0  0  0  0
 17 18  1  0  0  0  0
 18 19  2  0  0  0  0
 18 20  1  0  0  0  0
 20 21  1  0  0  0  0
 21 28  2  0  0  0  0
 21 22  1  0  0  0  0
 22 23  2  0  0  0  0
 22 27  1  0  0  0  0
 23 24  1  0  0  0  0
 24 25  2  0  0  0  0
 25 26  1  0  0  0  0
 25 30  1  0  0  0  0
 26 27  2  0  0  0  0
  1 31  1  0  0  0  0
  2 32  1  0  0  0  0
  4 33  1  0  0  0  0
  6 34  1  0  0  0  0
  8 35  1  0  0  0  0
  9 36  1  0  0  0  0
 13 37  1  0  0  0  0
 16 38  1  0  0  0  0
 17 39  1  0  0  0  0
 19 40  1  0  0  0  0
 20 41  1  0  0  0  0
 23 42  1  0  0  0  0
 24 43  1  0  0  0  0
 26 44  1  0  0  0  0
 27 45  1  0  0  0  0
 15 29  1  0  0  0  0
M  END
$$$$
R2-phenyl
  -MTS-   09180710593D 0   0.00000     0.00000     0

 46 49  0  0  0  0  0  0  0  0999 V2000
   -0.6160   -2.5610   16.3220 C   0  0  0  0  0  0  0  0  0  0  0  0
   -0.1590   -1.5820   15.4280 C   0  0  0  0  0  0  0  0  0  0  0  0
    1.2230   -1.2100   15.4400 C   0  0  0  0  0  0  0  0  0  0  0  0
    2.1050   -1.8610   16.3010 C   0  0  0  0  0  0  0  0  0  0  0  0
    1.6300   -2.8440   17.1730 C   0  0  0  0  0  0  0  0  0  0  0  0
    0.3130   -3.1620   17.1480 C   0  0  0  0  0  0  0  0  0  0  0  0
    1.8200   -0.1790   14.5040 C   0  0  0  0  0  0  0  0  0  0  0  0
    1.1220    0.3210   13.4790 C   0  0  0  0  0  0  0  0  0  0  0  0
    1.8180    1.2290   12.6370 C   0  0  0  0  0  0  0  0  0  0  0  0
    3.0970    1.5400   12.9060 N   0  0  0  0  0  0  0  0  0  0  0  0
    3.7360    0.9890   13.9560 C   0  0  0  0  0  0  0  0  0  0  0  0
    3.1390    0.0890   14.7520 N   0  0  0  0  0  0  0  0  0  0  0  0
    5.0340    1.2770   14.3150 N   0  0  0  0  0  0  0  0  0  0  0  0
    5.8220    1.9920   13.4350 C   0  0  0  0  0  0  0  0  0  0  0  0
    6.4930    1.4350   12.3170 C   0  0  0  0  0  0  0  0  0  0  0  0
    7.2840    2.3220   11.5760 C   0  0  0  0  0  0  0  0  0  0  0  0
    7.4100    3.6990   11.8900 C   0  0  0  0  0  0  0  0  0  0  0  0
    6.7590    4.2540   12.9680 C   0  0  0  0  0  0  0  0  0  0  0  0
    5.9840    3.3750   13.7260 C   0  0  0  0  0  0  0  0  0  0  0  0
    6.9670    5.6770   13.1940 N   0  0  0  0  0  0  0  0  0  0  0  0
    6.7430    6.3550   14.3430 C   0  0  0  0  0  0  0  0  0  0  0  0
    7.3760    7.6740   14.6280 C   0  0  0  0  0  0  0  0  0  0  0  0
    7.2030    8.2940   15.8790 C   0  0  0  0  0  0  0  0  0  0  0  0
    7.7300    9.5750   16.1920 C   0  0  0  0  0  0  0  0  0  0  0  0
    8.4660   10.2600   15.2310 C   0  0  0  0  0  0  0  0  0  0  0  0
    8.6090    9.6870   13.9770 C   0  0  0  0  0  0  0  0  0  0  0  0
    8.0690    8.4130   13.6570 C   0  0  0  0  0  0  0  0  0  0  0  0
    5.9890    5.9420   15.1740 O   0  0  0  0  0  0  0  0  0  0  0  0
    6.3982    0.3791   12.0641 H   0  0  0  0  0  0  0  0  0  0  0  0
    8.9117   11.2237   15.4572 H   0  0  0  0  0  0  0  0  0  0  0  0
   -1.6635   -2.8367   16.3632 H   0  0  0  0  0  0  0  0  0  0  0  0
   -0.8461   -1.1113   14.7342 H   0  0  0  0  0  0  0  0  0  0  0  0
    3.1583   -1.6049   16.2941 H   0  0  0  0  0  0  0  0  0  0  0  0
   -0.0337   -3.9386   17.8201 H   0  0  0  0  0  0  0  0  0  0  0  0
    0.0876    0.0499   13.3013 H   0  0  0  0  0  0  0  0  0  0  0  0
    1.3193    1.6691   11.7811 H   0  0  0  0  0  0  0  0  0  0  0  0
    5.4095    0.9652   15.2220 H   0  0  0  0  0  0  0  0  0  0  0  0
    7.8266    1.9369   10.7203 H   0  0  0  0  0  0  0  0  0  0  0  0
    8.0337    4.3292   11.2664 H   0  0  0  0  0  0  0  0  0  0  0  0
    5.4713    3.7727   14.5944 H   0  0  0  0  0  0  0  0  0  0  0  0
    7.3111    6.2083   12.4198 H   0  0  0  0  0  0  0  0  0  0  0  0
    6.6398    7.7681   16.6414 H   0  0  0  0  0  0  0  0  0  0  0  0
    7.5606   10.0139   17.1686 H   0  0  0  0  0  0  0  0  0  0  0  0
    9.1526   10.2309   13.2130 H   0  0  0  0  0  0  0  0  0  0  0  0
    8.1927    8.0097   12.6584 H   0  0  0  0  0  0  0  0  0  0  0  0
    2.3043   -3.3443   17.8586 H   0  0  0  0  0  0  0  0  0  0  0  0
  1  6  1  0  0  0  0
  1  2  2  0  0  0  0
  2  3  1  0  0  0  0
  3  4  2  0  0  0  0
  3  7  1  0  0  0  0
  4  5  1  0  0  0  0
  5  6  2  0  0  0  0
  7  8  2  0  0  0  0
  7 12  1  0  0  0  0
  8  9  1  0  0  0  0
  9 10  2  0  0  0  0
 10 11  1  0  0  0  0
 11 12  2  0  0  0  0
 11 13  1  0  0  0  0
 13 14  1  0  0  0  0
 14 19  1  0  0  0  0
 14 15  2  0  0  0  0
 15 16  1  0  0  0  0
 16 17  2  0  0  0  0
 17 18  1  0  0  0  0
 18 19  2  0  0  0  0
 18 20  1  0  0  0  0
 20 21  1  0  0  0  0
 21 28  2  0  0  0  0
 21 22  1  0  0  0  0
 22 23  2  0  0  0  0
 22 27  1  0  0  0  0
 23 24  1  0  0  0  0
 24 25  2  0  0  0  0
 25 26  1  0  0  0  0
 25 30  1  0  0  0  0
 26 27  2  0  0  0  0
  1 31  1  0  0  0  0
  2 32  1  0  0  0  0
  4 33  1  0  0  0  0
  6 34  1  0  0  0  0
  8 35  1  0  0  0  0
  9 36  1  0  0  0  0
 13 37  1  0  0  0  0
 16 38  1  0  0  0  0
 17 39  1  0  0  0  0
 19 40  1  0  0  0  0
 20 41  1  0  0  0  0
 23 42  1  0  0  0  0
 24 43  1  0  0  0  0
 26 44  1  0  0  0  0
 27 45  1  0  0  0  0
  5 46  1  0  0  0  0
 15 29  1  0  0  0  0
M  END
$$$$
R2-tButyl
  -MTS-   09180711023D 0   0.00000     0.00000     0

 48 50  0  0  0  0  0  0  0  0999 V2000
    1.8200   -0.1790   14.5040 C   0  0  0  0  0  0  0  0  0  0  0  0
    1.1220    0.3210   13.4790 C   0  0  0  0  0  0  0  0  0  0  0  0
    1.8180    1.2290   12.6370 C   0  0  0  0  0  0  0  0  0  0  0  0
    3.0970    1.5400   12.9060 N   0  0  0  0  0  0  0  0  0  0  0  0
    3.7360    0.9890   13.9560 C   0  0  0  0  0  0  0  0  0  0  0  0
    3.1390    0.0890   14.7520 N   0  0  0  0  0  0  0  0  0  0  0  0
    5.0340    1.2770   14.3150 N   0  0  0  0  0  0  0  0  0  0  0  0
    5.8220    1.9920   13.4350 C   0  0  0  0  0  0  0  0  0  0  0  0
    6.4930    1.4350   12.3170 C   0  0  0  0  0  0  0  0  0  0  0  0
    7.2840    2.3220   11.5760 C   0  0  0  0  0  0  0  0  0  0  0  0
    7.4100    3.6990   11.8900 C   0  0  0  0  0  0  0  0  0  0  0  0
    6.7590    4.2540   12.9680 C   0  0  0  0  0  0  0  0  0  0  0  0
    5.9840    3.3750   13.7260 C   0  0  0  0  0  0  0  0  0  0  0  0
    6.9670    5.6770   13.1940 N   0  0  0  0  0  0  0  0  0  0  0  0
    6.7430    6.3550   14.3430 C   0  0  0  0  0  0  0  0  0  0  0  0
    7.3760    7.6740   14.6280 C   0  0  0  0  0  0  0  0  0  0  0  0
    7.2030    8.2940   15.8790 C   0  0  0  0  0  0  0  0  0  0  0  0
    7.7300    9.5750   16.1920 C   0  0  0  0  0  0  0  0  0  0  0  0
    8.4660   10.2600   15.2310 C   0  0  0  0  0  0  0  0  0  0  0  0
    8.6090    9.6870   13.9770 C   0  0  0  0  0  0  0  0  0  0  0  0
    8.0690    8.4130   13.6570 C   0  0  0  0  0  0  0  0  0  0  0  0
    5.9890    5.9420   15.1740 O   0  0  0  0  0  0  0  0  0  0  0  0
    1.1970   -1.1510   15.5024 C   0  0  0  0  0  0  0  0  0  0  0  0
   -0.0153   -0.4857   16.2173 C   0  0  0  0  0  0  0  0  0  0  0  0
    0.7557   -2.4559   14.7782 C   0  0  0  0  0  0  0  0  0  0  0  0
    2.2475   -1.5352   16.5914 C   0  0  0  0  0  0  0  0  0  0  0  0
    3.3275   -2.1330   16.0171 H   0  0  0  0  0  0  0  0  0  0  0  0
    2.6676   -0.4208   17.2509 H   0  0  0  0  0  0  0  0  0  0  0  0
    1.7305   -2.3973   17.5084 H   0  0  0  0  0  0  0  0  0  0  0  0
    1.8088   -2.9657   14.0836 H   0  0  0  0  0  0  0  0  0  0  0  0
    0.3386   -3.3851   15.6800 H   0  0  0  0  0  0  0  0  0  0  0  0
   -0.2647   -2.2364   13.9076 H   0  0  0  0  0  0  0  0  0  0  0  0
    0.3732    0.7049   16.7492 H   0  0  0  0  0  0  0  0  0  0  0  0
   -1.0506   -0.2570   15.3669 H   0  0  0  0  0  0  0  0  0  0  0  0
   -0.4749   -1.2806   17.2210 H   0  0  0  0  0  0  0  0  0  0  0  0
    6.3982    0.3791   12.0641 H   0  0  0  0  0  0  0  0  0  0  0  0
    8.9117   11.2237   15.4572 H   0  0  0  0  0  0  0  0  0  0  0  0
    0.0876    0.0499   13.3013 H   0  0  0  0  0  0  0  0  0  0  0  0
    1.3193    1.6691   11.7811 H   0  0  0  0  0  0  0  0  0  0  0  0
    5.4095    0.9652   15.2220 H   0  0  0  0  0  0  0  0  0  0  0  0
    7.8266    1.9369   10.7203 H   0  0  0  0  0  0  0  0  0  0  0  0
    8.0337    4.3292   11.2664 H   0  0  0  0  0  0  0  0  0  0  0  0
    5.4713    3.7727   14.5944 H   0  0  0  0  0  0  0  0  0  0  0  0
    7.3111    6.2083   12.4198 H   0  0  0  0  0  0  0  0  0  0  0  0
    6.6398    7.7681   16.6414 H   0  0  0  0  0  0  0  0  0  0  0  0
    7.5606   10.0139   17.1686 H   0  0  0  0  0  0  0  0  0  0  0  0
    9.1526   10.2309   13.2130 H   0  0  0  0  0  0  0  0  0  0  0  0
    8.1927    8.0097   12.6584 H   0  0  0  0  0  0  0  0  0  0  0  0
  1  2  2  0  0  0  0
  1  6  1  0  0  0  0
  2  3  1  0  0  0  0
  3  4  2  0  0  0  0
  4  5  1  0  0  0  0
  5  6  2  0  0  0  0
  5  7  1  0  0  0  0
  7  8  1  0  0  0  0
  8 13  1  0  0  0  0
  8  9  2  0  0  0  0
  9 10  1  0  0  0  0
 10 11  2  0  0  0  0
 11 12  1  0  0  0  0
 12 13  2  0  0  0  0
 12 14  1  0  0  0  0
 14 15  1  0  0  0  0
 15 22  2  0  0  0  0
 15 16  1  0  0  0  0
 16 17  2  0  0  0  0
 16 21  1  0  0  0  0
 17 18  1  0  0  0  0
 18 19  2  0  0  0  0
 19 20  1  0  0  0  0
 19 37  1  0  0  0  0
 20 21  2  0  0  0  0
  2 38  1  0  0  0  0
  3 39  1  0  0  0  0
  7 40  1  0  0  0  0
 10 41  1  0  0  0  0
 11 42  1  0  0  0  0
 13 43  1  0  0  0  0
 14 44  1  0  0  0  0
 17 45  1  0  0  0  0
 18 46  1  0  0  0  0
 20 47  1  0  0  0  0
 21 48  1  0  0  0  0
  9 36  1  0  0  0  0
  1 23  1  0  0  0  0
 24 35  1  0  0  0  0
 24 34  1  0  0  0  0
 24 33  1  0  0  0  0
 23 24  1  0  0  0  0
 25 32  1  0  0  0  0
 25 31  1  0  0  0  0
 25 30  1  0  0  0  0
 23 25  1  0  0  0  0
 26 29  1  0  0  0  0
 26 28  1  0  0  0  0
 26 27  1  0  0  0  0
 23 26  1  0  0  0  0
M  END
$$$$
R2-4pyridinyl
  -MTS-   09180711503D 0   0.00000     0.00000     0

 45 48  0  0  0  0  0  0  0  0999 V2000
   -0.6104   -2.5138   16.2877 C   0  0  0  0  0  0  0  0  0  0  0  0
   -0.1590   -1.5820   15.4280 C   0  0  0  0  0  0  0  0  0  0  0  0
    1.2230   -1.2100   15.4400 C   0  0  0  0  0  0  0  0  0  0  0  0
    2.1050   -1.8610   16.3010 C   0  0  0  0  0  0  0  0  0  0  0  0
    1.5755   -2.8777   17.2059 C   0  0  0  0  0  0  0  0  0  0  0  0
    0.3315   -3.1523   17.1857 N   0  0  0  0  0  0  0  0  0  0  0  0
    1.8200   -0.1790   14.5040 C   0  0  0  0  0  0  0  0  0  0  0  0
    1.1220    0.3210   13.4790 C   0  0  0  0  0  0  0  0  0  0  0  0
    1.8180    1.2290   12.6370 C   0  0  0  0  0  0  0  0  0  0  0  0
    3.0970    1.5400   12.9060 N   0  0  0  0  0  0  0  0  0  0  0  0
    3.7360    0.9890   13.9560 C   0  0  0  0  0  0  0  0  0  0  0  0
    3.1390    0.0890   14.7520 N   0  0  0  0  0  0  0  0  0  0  0  0
    5.0340    1.2770   14.3150 N   0  0  0  0  0  0  0  0  0  0  0  0
    5.8220    1.9920   13.4350 C   0  0  0  0  0  0  0  0  0  0  0  0
    6.4930    1.4350   12.3170 C   0  0  0  0  0  0  0  0  0  0  0  0
    7.2840    2.3220   11.5760 C   0  0  0  0  0  0  0  0  0  0  0  0
    7.4100    3.6990   11.8900 C   0  0  0  0  0  0  0  0  0  0  0  0
    6.7590    4.2540   12.9680 C   0  0  0  0  0  0  0  0  0  0  0  0
    5.9840    3.3750   13.7260 C   0  0  0  0  0  0  0  0  0  0  0  0
    6.9670    5.6770   13.1940 N   0  0  0  0  0  0  0  0  0  0  0  0
    6.7430    6.3550   14.3430 C   0  0  0  0  0  0  0  0  0  0  0  0
    7.3760    7.6740   14.6280 C   0  0  0  0  0  0  0  0  0  0  0  0
    7.2030    8.2940   15.8790 C   0  0  0  0  0  0  0  0  0  0  0  0
    7.7300    9.5750   16.1920 C   0  0  0  0  0  0  0  0  0  0  0  0
    8.4660   10.2600   15.2310 C   0  0  0  0  0  0  0  0  0  0  0  0
    8.6090    9.6870   13.9770 C   0  0  0  0  0  0  0  0  0  0  0  0
    8.0690    8.4130   13.6570 C   0  0  0  0  0  0  0  0  0  0  0  0
    5.9890    5.9420   15.1740 O   0  0  0  0  0  0  0  0  0  0  0  0
    6.3982    0.3791   12.0641 H   0  0  0  0  0  0  0  0  0  0  0  0
    8.9117   11.2237   15.4572 H   0  0  0  0  0  0  0  0  0  0  0  0
   -1.6635   -2.8367   16.3632 H   0  0  0  0  0  0  0  0  0  0  0  0
   -0.8461   -1.1113   14.7342 H   0  0  0  0  0  0  0  0  0  0  0  0
    3.1583   -1.6049   16.2941 H   0  0  0  0  0  0  0  0  0  0  0  0
    0.0876    0.0499   13.3013 H   0  0  0  0  0  0  0  0  0  0  0  0
    1.3193    1.6691   11.7811 H   0  0  0  0  0  0  0  0  0  0  0  0
    5.4095    0.9652   15.2220 H   0  0  0  0  0  0  0  0  0  0  0  0
    7.8266    1.9369   10.7203 H   0  0  0  0  0  0  0  0  0  0  0  0
    8.0337    4.3292   11.2664 H   0  0  0  0  0  0  0  0  0  0  0  0
    5.4713    3.7727   14.5944 H   0  0  0  0  0  0  0  0  0  0  0  0
    7.3111    6.2083   12.4198 H   0  0  0  0  0  0  0  0  0  0  0  0
    6.6398    7.7681   16.6414 H   0  0  0  0  0  0  0  0  0  0  0  0
    7.5606   10.0139   17.1686 H   0  0  0  0  0  0  0  0  0  0  0  0
    9.1526   10.2309   13.2130 H   0  0  0  0  0  0  0  0  0  0  0  0
    8.1927    8.0097   12.6584 H   0  0  0  0  0  0  0  0  0  0  0  0
    2.3043   -3.3443   17.8586 H   0  0  0  0  0  0  0  0  0  0  0  0
  1  6  1  0  0  0  0
  1  2  2  0  0  0  0
  2  3  1  0  0  0  0
  3  4  2  0  0  0  0
  3  7  1  0  0  0  0
  4  5  1  0  0  0  0
  5  6  2  0  0  0  0
  7  8  2  0  0  0  0
  7 12  1  0  0  0  0
  8  9  1  0  0  0  0
  9 10  2  0  0  0  0
 10 11  1  0  0  0  0
 11 12  2  0  0  0  0
 11 13  1  0  0  0  0
 13 14  1  0  0  0  0
 14 19  1  0  0  0  0
 14 15  2  0  0  0  0
 15 16  1  0  0  0  0
 16 17  2  0  0  0  0
 17 18  1  0  0  0  0
 18 19  2  0  0  0  0
 18 20  1  0  0  0  0
 20 21  1  0  0  0  0
 21 28  2  0  0  0  0
 21 22  1  0  0  0  0
 22 23  2  0  0  0  0
 22 27  1  0  0  0  0
 23 24  1  0  0  0  0
 24 25  2  0  0  0  0
 25 26  1  0  0  0  0
 25 30  1  0  0  0  0
 26 27  2  0  0  0  0
  1 31  1  0  0  0  0
  2 32  1  0  0  0  0
  4 33  1  0  0  0  0
  8 34  1  0  0  0  0
  9 35  1  0  0  0  0
 13 36  1  0  0  0  0
 16 37  1  0  0  0  0
 17 38  1  0  0  0  0
 19 39  1  0  0  0  0
 20 40  1  0  0  0  0
 23 41  1  0  0  0  0
 24 42  1  0  0  0  0
 26 43  1  0  0  0  0
 27 44  1  0  0  0  0
  5 45  1  0  0  0  0
 15 29  1  0  0  0  0
M  END
$$$$